LAMMPS (9 Nov 2016)
# Input file for uniaxial tensile loading of single crystal aluminum
# Mark Tschopp, November 2010

# ----- INITIALIZATION -----
units 		metal
dimension	3
boundary	p	p	p
atom_style	atomic
variable latparam equal 4.05

# ----- ATOM DEFINITION -----
lattice		fcc 4.05
Lattice spacing in x,y,z = 4.05 4.05 4.05
region		whole block 0 10 0 10 0 10
create_box	1 whole
Created orthogonal box = (0 0 0) to (40.5 40.5 40.5)
lattice 	fcc 4.05 orient x 1 0 0 orient y 0 1 0 orient z 0 0 1
Lattice spacing in x,y,z = 4.05 4.05 4.05
create_atoms	1 region whole
Created 4000 atoms

# ----- FORCE FIELDS -----
pair_style	eam/alloy
pair_coeff	* * Al99.eam.alloy Al

# ----- SETTINGS -----
compute csym all centro/atom fcc
compute peratom all pe/atom

###################################
# -----EQUILIBRATION-----
reset_timestep	0
timestep 0.001
velocity all create 300 12345 mom yes rot no
fix 1 all npt temp 300 300 1 iso 0 0 1 drag 1

# instrumentation and output
variable s1 equal "time"
variable s2 equal "lx"
variable s3 equal "ly"
variable s4 equal "lz"
variable s5 equal "vol"
variable s6 equal "press"
variable s7 equal "pe"
variable s8 equal "ke"
variable s9 equal "etotal"
variable s10 equal "temp"

# Set thermo output
thermo 1000
thermo_style custom time step lx ly lz vol press pxx pyy pzz pe ke etotal temp

# Run for at least 10 picosecond (assuming 1 fs timestep)
run 20000
  2 neighbor list requests
  update every 1 steps, delay 10 steps, check yes
Time Step Lx Ly Lz Volume Press Pxx Pyy Pzz PotEng KinEng TotEng Temp
Loop time of 289.817 on 1 procs for 20000 steps with 4000 atoms

print "-3-"
-3-
unfix 1

# Store final cell length for strain calculations
variable tmp equal "lx"
variable L0 equal 40.6499957953366
Initial Length, L0: 40.6499957953366
##############################################
# -----DEFORMATION-----
reset_timestep	0

fix		1 all npt temp 300 300 1 y 0 0 1 z 0 0 1 drag 1
variable srate equal 1.0e10
variable srate1 equal "v_srate / 1.0e12"
fix		2 all deform 1 x erate 0.01 units box remap x

# Output strain and stress info to file
# for units metal, pressure is in [bars] = 100 [kPa] = 1/10000 [GPa]
# p2, p3, p4 are in GPa
variable strain equal "(lx - v_L0)/v_L0"
variable p1 equal "v_strain"
variable p2 equal "-pxx/10000"
variable p3 equal "-pyy/10000"
variable p4 equal "-pzz/10000"

# -----Use cfg for Visualization Tools-----
dump 		1 all cfg 250 dump.tensile_*.cfg mass type xs ys zs c_csym c_peratom fx fy fz
dump_modify 1 element Al

# -----Display thermo-----
thermo 	1000
thermo_style	custom step v_strain temp v_p2 v_p3 v_p4 ke pe press

run		20000
Step v_strain Temp v_p2 v_p3 v_p4 KinEng PotEng Press
0 -1.7479528e-16    301.85066 0.0060988211  0.010082201  0.017635503    156.03002    -13286.64   -112.72175
Averages over the last 11 of 21 rows, steps 10000 to 20000:
v_strain Temp v_p2 v_p3 v_p4 KinEng PotEng Press
0.15 345.394 4.77968 0.00610705 0.00102871 178.538 -13060.5 -15956
Loop time of 324.169 on 1 procs for 20000 steps with 4000 atoms

########################################
# -----SIMULATION DONE-----
print "All done"
All done
